Version 4
SHEET 1 880 680
WIRE -240 -256 -496 -256
WIRE 80 -256 -240 -256
WIRE 80 -224 80 -256
WIRE 112 -176 96 -176
WIRE 144 -176 144 -192
WIRE 144 -80 144 -96
WIRE 208 -80 144 -80
WIRE 0 -48 0 -176
WIRE 32 -48 0 -48
WIRE 112 -48 112 -176
WIRE 112 -48 96 -48
WIRE 144 16 144 0
WIRE 112 48 112 -48
WIRE 128 48 112 48
WIRE 208 48 208 -80
WIRE 208 48 176 48
WIRE -368 64 -368 48
WIRE 256 64 256 32
WIRE -288 80 -320 80
WIRE 80 80 80 48
WIRE 224 80 144 80
WIRE -96 96 -160 96
WIRE 0 96 0 -48
WIRE 0 96 -16 96
WIRE 48 96 0 96
WIRE 400 96 288 96
WIRE -160 112 -160 96
WIRE 128 112 128 48
WIRE 128 112 112 112
WIRE 144 112 144 80
WIRE 144 112 128 112
WIRE 176 112 176 48
WIRE 224 112 176 112
WIRE 48 128 0 128
WIRE -496 160 -496 -256
WIRE 256 160 256 128
WIRE -240 176 -240 -256
WIRE -192 176 -240 176
WIRE -96 176 -192 176
WIRE 0 176 0 128
WIRE 0 176 -16 176
WIRE 80 176 80 144
WIRE -368 192 -368 160
WIRE -192 192 -192 176
WIRE 0 192 0 176
WIRE 400 208 400 176
WIRE 544 208 544 176
WIRE 672 208 672 176
WIRE -288 272 -288 80
WIRE -288 272 -320 272
WIRE 0 288 0 256
WIRE -368 320 -368 288
WIRE -192 320 -192 272
WIRE 544 320 544 288
WIRE 672 320 672 288
FLAG 544 176 Vcc
FLAG 544 320 0
FLAG 80 48 Vcc
FLAG 256 32 Vcc
FLAG 144 16 0
FLAG 144 -192 Vcc
FLAG 400 208 0
FLAG -192 320 0
FLAG 672 320 0
FLAG 672 176 -Vcc
FLAG -160 112 0
FLAG 0 288 0
FLAG 256 160 0
FLAG 80 176 0
FLAG -368 320 0
FLAG -368 48 Vcc
SYMBOL Opamps\\LTC2054 80 112 R0
SYMATTR InstName U1
SYMBOL Opamps\\LTC2054 256 96 R0
SYMATTR InstName U2
SYMBOL res 128 -192 R0
SYMATTR InstName R1
SYMATTR Value 20k
SYMBOL res 128 -96 R0
SYMATTR InstName R2
SYMATTR Value 10k
SYMBOL voltage 544 192 R0
SYMATTR InstName V1
SYMATTR Value 3.3
SYMBOL cap 32 -64 M90
WINDOW 0 0 32 VBottom 2
WINDOW 3 32 32 VTop 2
SYMATTR InstName C1
SYMATTR Value 1µ
SYMBOL res 0 80 R90
WINDOW 0 0 56 VBottom 2
WINDOW 3 32 56 VTop 2
SYMATTR InstName R3
SYMATTR Value 1k
SYMBOL res 384 80 R0
SYMATTR InstName R4
SYMATTR Value 10k
SYMBOL voltage -192 176 R0
WINDOW 3 126 189 Left 2
WINDOW 123 0 0 Left 2
WINDOW 39 0 0 Left 2
SYMATTR InstName V2
SYMATTR Value PULSE(0 3.3 10e-4 1e-9 1e-9 1e-4 20e-4 1)
SYMBOL voltage 672 192 R0
SYMATTR InstName V3
SYMATTR Value -3.3
SYMBOL res 0 160 R90
WINDOW 0 0 56 VBottom 2
WINDOW 3 32 56 VTop 2
SYMATTR InstName R5
SYMATTR Value 1k
SYMBOL cap -16 192 R0
SYMATTR InstName C2
SYMATTR Value 1µ
SYMBOL nmos 0 -224 M90
SYMATTR InstName M1
SYMBOL nmos -320 192 M0
SYMATTR InstName M2
SYMATTR Value 2N7002
SYMBOL pmos -320 160 R180
SYMATTR InstName M3
SYMATTR Value FDC638P
TEXT -226 344 Left 2 !.tran 200e-4
